data_image0
_chemical_formula_structural       Rb6Al2H12
_chemical_formula_sum              "Rb6 Al2 H12"
_cell_length_a       5.2934
_cell_length_b       5.49021
_cell_length_c       9.27932
_cell_angle_alpha    90
_cell_angle_beta     124.799
_cell_angle_gamma    90

_space_group_name_H-M_alt    "P 1"
_space_group_IT_number       1

loop_
  _space_group_symop_operation_xyz
  'x, y, z'

loop_
  _atom_site_type_symbol
  _atom_site_label
  _atom_site_symmetry_multiplicity
  _atom_site_fract_x
  _atom_site_fract_y
  _atom_site_fract_z
  _atom_site_occupancy
  Rb  Rb1       1.0  0.26469  0.54728  0.25353  1.0000
  Rb  Rb2       1.0  0.73531  0.45272  0.74647  1.0000
  Rb  Rb3       1.0  0.73531  0.04728  0.24647  1.0000
  Rb  Rb4       1.0  0.26469  0.95272  0.75353  1.0000
  Rb  Rb5       1.0  0.50000  0.00000  0.50000  1.0000
  Rb  Rb6       1.0  0.50000  0.50000  0.00000  1.0000
  Al  Al1       1.0  0.00000  0.00000  0.00000  1.0000
  Al  Al2       1.0  1.00000  0.50000  0.50000  1.0000
  H   H1        1.0  0.11723  0.54770  0.71674  1.0000
  H   H2        1.0  0.88277  0.45230  0.28326  1.0000
  H   H3        1.0  0.88277  0.04770  0.78326  1.0000
  H   H4        1.0  0.11723  0.95230  0.21674  1.0000
  H   H5        1.0  0.22428  0.23276  0.56298  1.0000
  H   H6        1.0  0.77572  0.76724  0.43702  1.0000
  H   H7        1.0  0.77572  0.73276  0.93702  1.0000
  H   H8        1.0  0.22428  0.26724  0.06298  1.0000
  H   H9        1.0  0.31541  0.66972  0.54345  1.0000
  H   H10       1.0  0.68459  0.33028  0.45655  1.0000
  H   H11       1.0  0.68459  0.16972  0.95655  1.0000
  H   H12       1.0  0.31541  0.83028  0.04345  1.0000
