data_image0
_chemical_formula_structural       Rb10Al6H28
_chemical_formula_sum              "Rb10 Al6 H28"
_cell_length_a       6.67364
_cell_length_b       6.67364
_cell_length_c       10.2055
_cell_angle_alpha    90
_cell_angle_beta     90
_cell_angle_gamma    90

_space_group_name_H-M_alt    "P 1"
_space_group_IT_number       1

loop_
  _space_group_symop_operation_xyz
  'x, y, z'

loop_
  _atom_site_type_symbol
  _atom_site_label
  _atom_site_symmetry_multiplicity
  _atom_site_fract_x
  _atom_site_fract_y
  _atom_site_fract_z
  _atom_site_occupancy
  Rb  Rb1       1.0  0.21265  0.28735  0.25000  1.0000
  Rb  Rb2       1.0  0.78735  0.71265  0.75000  1.0000
  Rb  Rb3       1.0  0.71265  0.21265  0.25000  1.0000
  Rb  Rb4       1.0  0.28735  0.78735  0.75000  1.0000
  Rb  Rb5       1.0  0.78735  0.71265  0.25000  1.0000
  Rb  Rb6       1.0  0.21265  0.28735  0.75000  1.0000
  Rb  Rb7       1.0  0.28735  0.78735  0.25000  1.0000
  Rb  Rb8       1.0  0.71265  0.21265  0.75000  1.0000
  Rb  Rb9       1.0  0.00000  0.00000  0.50000  1.0000
  Rb  Rb10      1.0  0.50000  0.50000  0.00000  1.0000
  Al  Al1       1.0  0.00000  0.50000  0.00000  1.0000
  Al  Al2       1.0  0.50000  0.00000  0.00000  1.0000
  Al  Al3       1.0  0.50000  0.00000  0.50000  1.0000
  Al  Al4       1.0  0.00000  0.50000  0.50000  1.0000
  Al  Al5       1.0  0.00000  0.00000  0.00000  1.0000
  Al  Al6       1.0  0.50000  0.50000  0.50000  1.0000
  H   H1        1.0  0.04380  0.67995  0.38249  1.0000
  H   H2        1.0  0.95620  0.32005  0.61751  1.0000
  H   H3        1.0  0.32005  0.04380  0.38249  1.0000
  H   H4        1.0  0.67995  0.95620  0.61751  1.0000
  H   H5        1.0  0.95620  0.32005  0.38249  1.0000
  H   H6        1.0  0.04380  0.67995  0.61751  1.0000
  H   H7        1.0  0.67995  0.95620  0.38249  1.0000
  H   H8        1.0  0.32005  0.04380  0.61751  1.0000
  H   H9        1.0  0.54380  0.82005  0.11751  1.0000
  H   H10       1.0  0.45620  0.17995  0.88249  1.0000
  H   H11       1.0  0.82005  0.45620  0.11751  1.0000
  H   H12       1.0  0.17995  0.54380  0.88249  1.0000
  H   H13       1.0  0.45620  0.17995  0.11751  1.0000
  H   H14       1.0  0.54380  0.82005  0.88249  1.0000
  H   H15       1.0  0.17995  0.54380  0.11751  1.0000
  H   H16       1.0  0.82005  0.45620  0.88249  1.0000
  H   H17       1.0  0.07512  0.24763  0.00000  1.0000
  H   H18       1.0  0.92488  0.75237  0.00000  1.0000
  H   H19       1.0  0.75237  0.07512  0.00000  1.0000
  H   H20       1.0  0.24763  0.92488  0.00000  1.0000
  H   H21       1.0  0.57512  0.25237  0.50000  1.0000
  H   H22       1.0  0.42488  0.74763  0.50000  1.0000
  H   H23       1.0  0.25237  0.42488  0.50000  1.0000
  H   H24       1.0  0.74763  0.57512  0.50000  1.0000
  H   H25       1.0  0.00000  0.00000  0.17050  1.0000
  H   H26       1.0  0.00000  0.00000  0.82950  1.0000
  H   H27       1.0  0.50000  0.50000  0.32950  1.0000
  H   H28       1.0  0.50000  0.50000  0.67050  1.0000
